Version 4
SHEET 1 880 680
WIRE -176 160 -288 160
WIRE -48 160 -48 96
WIRE -48 160 -96 160
WIRE -16 160 -48 160
WIRE 48 160 -16 160
WIRE 352 160 304 160
WIRE 416 160 352 160
WIRE -288 192 -288 160
WIRE -16 240 -16 160
WIRE 352 240 352 160
WIRE 176 304 176 256
WIRE 176 304 -16 304
WIRE 352 304 176 304
WIRE 176 400 176 304
FLAG 176 400 0
FLAG 416 160 Vout
IOPIN 416 160 Out
FLAG -288 192 0
FLAG -48 96 Vin
SYMBOL L7805 176 160 R0
SYMATTR InstName U1
SYMBOL voltage -80 160 R90
WINDOW 0 -32 56 VBottom 2
WINDOW 3 32 56 VTop 2
WINDOW 123 0 0 Left 0
WINDOW 39 0 0 Left 0
SYMATTR InstName Vin
SYMATTR Value SINE(10 1 1000)
SYMBOL cap -32 240 R0
SYMATTR InstName C1
SYMATTR Value 0.1µF
SYMBOL cap 336 240 R0
SYMATTR InstName C2
SYMATTR Value 0.1µF
TEXT -168 240 Left 2 !.tran 10m
