Version 4
SHEET 1 880 680
WIRE 16 112 -128 112
WIRE 64 112 16 112
WIRE 368 112 320 112
WIRE 432 112 368 112
WIRE -128 144 -128 112
WIRE 16 256 16 112
WIRE 368 256 368 112
WIRE -128 272 -128 224
WIRE 192 320 192 208
WIRE 192 320 16 320
WIRE 368 320 192 320
WIRE 192 368 192 320
FLAG 192 368 0
FLAG -128 272 0
FLAG 432 112 Vout
SYMBOL L7805 192 112 R0
SYMATTR InstName U1
SYMBOL cap 0 256 R0
SYMATTR InstName C1
SYMBOL cap 352 256 R0
SYMATTR InstName C2
SYMBOL voltage -128 128 R0
WINDOW 123 0 0 Left 0
WINDOW 39 0 0 Left 0
SYMATTR InstName Vin
SYMATTR Value 11
