Version 4
SHEET 1 880 680
WIRE 16 112 -128 112
WIRE 64 112 16 112
WIRE 368 112 320 112
WIRE 432 112 368 112
WIRE -128 144 -128 112
WIRE 16 240 16 112
WIRE 368 240 368 112
WIRE -128 272 -128 224
WIRE 16 336 16 304
WIRE 192 336 192 208
WIRE 192 336 16 336
WIRE 368 336 368 304
WIRE 368 336 192 336
WIRE 192 384 192 336
FLAG 192 384 0
FLAG -128 272 0
FLAG 432 112 Vout
SYMBOL L7805 192 112 R0
SYMATTR InstName U1
SYMBOL cap 0 240 R0
SYMATTR InstName C1
SYMATTR Value 100n
SYMBOL cap 352 240 R0
SYMATTR InstName C2
SYMATTR Value 10µ
SYMBOL voltage -128 128 R0
WINDOW 123 0 0 Left 0
WINDOW 39 0 0 Left 0
SYMATTR InstName Vin
SYMATTR Value 11
TEXT -162 408 Left 2 !.tran 10m
