Version 4
SHEET 1 880 680
WIRE 144 128 -32 128
WIRE 320 128 272 128
WIRE 400 128 320 128
WIRE -32 144 -32 128
WIRE 320 176 320 128
WIRE -32 240 -32 224
WIRE 208 272 208 176
WIRE 320 272 320 256
WIRE 320 272 208 272
WIRE 320 304 320 272
WIRE 320 416 320 384
FLAG -32 240 0
FLAG 320 416 0
FLAG 464 128 vout
SYMBOL Misc\\LM317 208 128 R0
SYMATTR InstName U1
SYMBOL voltage -32 128 R0
SYMATTR InstName V1
SYMATTR Value 11
SYMBOL res 304 160 R0
SYMATTR InstName R1
SYMATTR Value 1.1k
SYMBOL res 304 288 R0
SYMATTR InstName 100
SYMATTR Value 11
SYMBOL diode 400 144 R270
WINDOW 0 32 32 VTop 2
WINDOW 3 0 32 VBottom 2
SYMATTR InstName D1
TEXT -64 440 Left 2 !.tran 0 10m 0 1m
